/*--------------------------------*- C++ -*----------------------------------*\
| =========                 |                                                 |
| \\      /  F ield         | OpenFOAM: The Open Source CFD Toolbox           |
|  \\    /   O peration     | Version:  5                                     |
|   \\  /    A nd           | Web:      www.OpenFOAM.org                      |
|    \\/     M anipulation  |                                                 |
\*---------------------------------------------------------------------------*/
FoamFile
{
    version     2.0;
    format      ascii;
    class       dictionary;
    object      blockMeshDict;
}
// * * * * * * * * * * * * * * * * * * * * * * * * * * * * * * * * * * * * * //
convertToMeters 0.01;
vertices
(
    (0 0 0)
    (0.4 0 0)
    (0.5 0 0)
    (0.5 1 0)    
    (0.4 1 0)
    (0 1 0)


    (0 0 0.01)
    (0.4 0 0.01)
    (0.5 0 0.01)
    (0.5 1 0.01)    
    (0.4 1 0.01)
    (0 1 0.01)    
 
);



blocks
(
    hex (0 1 4 5 6 7 10 11)
    (20 50 1)
    simpleGrading (1 1 1)

    hex (1 2 3 4 7 8 9 10)
    (5 50 1)
    simpleGrading (1 1 1)

);




edges
(
);

boundary
(
    heat_flux
    {
        type patch;
        faces
        (
            (1 2 8 7)
        );
    }

    Wall
    {
        type wall;
        faces
        (
            (3 4 10 9)
            (4 5 11 10)
            (5 0 6 11)
            (0 1 7 6)
        );
    }
    right
    {
        type symmetry;
        faces
        (
            (2 3 9 8)
        );
    }
    frontAndBack
    {
        type empty;
        faces
        (
            (6 7 10 11)
            (7 8 9 10)
            (0 5 4 1)
            (1 4 3 2)
        );
    }
);
mergePatchPairs
(
);

// ************************************************************************* //
